* Copyright 2020 The SkyWater PDK Authors
*
* Licensed under the Apache License, Version 2.0 (the "License");
* you may not use this file except in compliance with the License.
* You may obtain a copy of the License at
*
*     https://www.apache.org/licenses/LICENSE-2.0
*
* Unless required by applicable law or agreed to in writing, software
* distributed under the License is distributed on an "AS IS" BASIS,
* WITHOUT WARRANTIES OR CONDITIONS OF ANY KIND, either express or implied.
* See the License for the specific language governing permissions and
* limitations under the License.
*
* SPDX-License-Identifier: Apache-2.0

.SUBCKT sky130_fd_sc_hd__a2111o_1 A1 A2 B1 C1 D1 VGND VNB VPB VPWR X
*.PININFO A1:I A2:I B1:I C1:I D1:I VGND:I VNB:I VPB:I VPWR:I X:O
MMPA0 pndA A1 VPWR VPB pfet_01v8_hvt w=1.0 l=0.15
MMPA1 pndA A2 VPWR VPB pfet_01v8_hvt w=1.0 l=0.15
MMPB0 pndB B1 pndA VPB pfet_01v8_hvt w=1.0 l=0.15
MMPC0 pndC C1 pndB VPB pfet_01v8_hvt w=1.0 l=0.15
MMPD0 y D1 pndC VPB pfet_01v8_hvt w=1.0 l=0.15
MMIPX X y VPWR VPB pfet_01v8_hvt w=1.0 l=0.15
MMNA0 y A1 sndA1 VNB nfet_01v8 w=0.65 l=0.15
MMNA1 sndA1 A2 VGND VNB nfet_01v8 w=0.65 l=0.15
MMNB0 y B1 VGND VNB nfet_01v8 w=0.65 l=0.15
MMNC0 y C1 VGND VNB nfet_01v8 w=0.65 l=0.15
MMND0 y D1 VGND VNB nfet_01v8 w=0.65 l=0.15
MMINX X y VGND VNB nfet_01v8 w=0.65 l=0.15
.ENDS sky130_fd_sc_hd__a2111o_1


.SUBCKT sky130_fd_sc_hd__a2111o_2 A1 A2 B1 C1 D1 VGND VNB VPB VPWR X
*.PININFO A1:I A2:I B1:I C1:I D1:I VGND:I VNB:I VPB:I VPWR:I X:O
MMPA0 pndA A1 VPWR VPB pfet_01v8_hvt w=1.0 l=0.15
MMPA1 pndA A2 VPWR VPB pfet_01v8_hvt w=1.0 l=0.15
MMPB0 pndB B1 pndA VPB pfet_01v8_hvt w=1.0 l=0.15
MMPC0 pndC C1 pndB VPB pfet_01v8_hvt w=1.0 l=0.15
MMPD0 y D1 pndC VPB pfet_01v8_hvt w=1.0 l=0.15
MMIPX X y VPWR VPB pfet_01v8_hvt m=2 w=1.0 l=0.15
MMNA0 y A1 sndA1 VNB nfet_01v8 w=0.65 l=0.15
MMNA1 sndA1 A2 VGND VNB nfet_01v8 w=0.65 l=0.15
MMNB0 y B1 VGND VNB nfet_01v8 w=0.65 l=0.15
MMNC0 y C1 VGND VNB nfet_01v8 w=0.65 l=0.15
MMND0 y D1 VGND VNB nfet_01v8 w=0.65 l=0.15
MMINX X y VGND VNB nfet_01v8 m=2 w=0.65 l=0.15
.ENDS sky130_fd_sc_hd__a2111o_2


.SUBCKT sky130_fd_sc_hd__a2111o_4 A1 A2 B1 C1 D1 VGND VNB VPB VPWR X
*.PININFO A1:I A2:I B1:I C1:I D1:I VGND:I VNB:I VPB:I VPWR:I X:O
MMPA0 pndA A1 VPWR VPB pfet_01v8_hvt m=2 w=1.0 l=0.15
MMPA1 pndA A2 VPWR VPB pfet_01v8_hvt m=2 w=1.0 l=0.15
MMPB0 pndB B1 pndA VPB pfet_01v8_hvt m=2 w=1.0 l=0.15
MMPC0 pndC C1 pndB VPB pfet_01v8_hvt m=2 w=1.0 l=0.15
MMPD0 y D1 pndC VPB pfet_01v8_hvt m=2 w=1.0 l=0.15
MMIPX X y VPWR VPB pfet_01v8_hvt m=4 w=1.0 l=0.15
MMNA0 y A1 sndA1 VNB nfet_01v8 m=2 w=0.65 l=0.15
MMNA1 sndA1 A2 VGND VNB nfet_01v8 m=2 w=0.65 l=0.15
MMNB0 y B1 VGND VNB nfet_01v8 m=2 w=0.65 l=0.15
MMNC0 y C1 VGND VNB nfet_01v8 m=2 w=0.65 l=0.15
MMND0 y D1 VGND VNB nfet_01v8 m=2 w=0.65 l=0.15
MMINX X y VGND VNB nfet_01v8 m=4 w=0.65 l=0.15
.ENDS sky130_fd_sc_hd__a2111o_4


.SUBCKT sky130_fd_sc_hd__a2111oi_0 A1 A2 B1 C1 D1 VGND VNB VPB VPWR Y
*.PININFO A1:I A2:I B1:I C1:I D1:I VGND:I VNB:I VPB:I VPWR:I Y:O
MMPA0 pndA A1 VPWR VPB pfet_01v8_hvt w=0.64 l=0.15
MMPA1 pndA A2 VPWR VPB pfet_01v8_hvt w=0.64 l=0.15
MMPB0 pndB B1 pndA VPB pfet_01v8_hvt w=0.64 l=0.15
MMPC0 pndC C1 pndB VPB pfet_01v8_hvt w=0.64 l=0.15
MMPD0 Y D1 pndC VPB pfet_01v8_hvt w=0.64 l=0.15
MMNA0 Y A1 sndA1 VNB nfet_01v8 w=0.42 l=0.15
MMNA1 sndA1 A2 VGND VNB nfet_01v8 w=0.42 l=0.15
MMNB0 Y B1 VGND VNB nfet_01v8 w=0.42 l=0.15
MMNC0 Y C1 VGND VNB nfet_01v8 w=0.42 l=0.15
MMND0 Y D1 VGND VNB nfet_01v8 w=0.42 l=0.15
.ENDS sky130_fd_sc_hd__a2111oi_0


.SUBCKT sky130_fd_sc_hd__a2111oi_1 A1 A2 B1 C1 D1 VGND VNB VPB VPWR Y
*.PININFO A1:I A2:I B1:I C1:I D1:I VGND:I VNB:I VPB:I VPWR:I Y:O
MMPA0 pndA A1 VPWR VPB pfet_01v8_hvt w=1.0 l=0.15
MMPA1 pndA A2 VPWR VPB pfet_01v8_hvt w=1.0 l=0.15
MMPB0 pndB B1 pndA VPB pfet_01v8_hvt w=1.0 l=0.15
MMPC0 pndC C1 pndB VPB pfet_01v8_hvt w=1.0 l=0.15
MMPD0 Y D1 pndC VPB pfet_01v8_hvt w=1.0 l=0.15
MMNA0 Y A1 sndA1 VNB nfet_01v8 w=0.65 l=0.15
MMNA1 sndA1 A2 VGND VNB nfet_01v8 w=0.65 l=0.15
MMNB0 Y B1 VGND VNB nfet_01v8 w=0.65 l=0.15
MMNC0 Y C1 VGND VNB nfet_01v8 w=0.65 l=0.15
MMND0 Y D1 VGND VNB nfet_01v8 w=0.65 l=0.15
.ENDS sky130_fd_sc_hd__a2111oi_1


.SUBCKT sky130_fd_sc_hd__a2111oi_2 A1 A2 B1 C1 D1 VGND VNB VPB VPWR Y
*.PININFO A1:I A2:I B1:I C1:I D1:I VGND:I VNB:I VPB:I VPWR:I Y:O
MMPA0 pndA A1 VPWR VPB pfet_01v8_hvt m=2 w=1.0 l=0.15
MMPA1 pndA A2 VPWR VPB pfet_01v8_hvt m=2 w=1.0 l=0.15
MMPB0 pndB B1 pndA VPB pfet_01v8_hvt m=2 w=1.0 l=0.15
MMPC0 pndC C1 pndB VPB pfet_01v8_hvt m=2 w=1.0 l=0.15
MMPD0 Y D1 pndC VPB pfet_01v8_hvt m=2 w=1.0 l=0.15
MMNA0 Y A1 sndA1 VNB nfet_01v8 m=2 w=0.65 l=0.15
MMNA1 sndA1 A2 VGND VNB nfet_01v8 m=2 w=0.65 l=0.15
MMNB0 Y B1 VGND VNB nfet_01v8 m=2 w=0.65 l=0.15
MMNC0 Y C1 VGND VNB nfet_01v8 m=2 w=0.65 l=0.15
MMND0 Y D1 VGND VNB nfet_01v8 m=2 w=0.65 l=0.15
.ENDS sky130_fd_sc_hd__a2111oi_2


.SUBCKT sky130_fd_sc_hd__a2111oi_4 A1 A2 B1 C1 D1 VGND VNB VPB VPWR Y
*.PININFO A1:I A2:I B1:I C1:I D1:I VGND:I VNB:I VPB:I VPWR:I Y:O
MMPA0 pndA A1 VPWR VPB pfet_01v8_hvt m=4 w=1.0 l=0.15
MMPA1 pndA A2 VPWR VPB pfet_01v8_hvt m=4 w=1.0 l=0.15
MMPB0 pndB B1 pndA VPB pfet_01v8_hvt m=4 w=1.0 l=0.15
MMPC0 pndC C1 pndB VPB pfet_01v8_hvt m=4 w=1.0 l=0.15
MMPD0 Y D1 pndC VPB pfet_01v8_hvt m=4 w=1.0 l=0.15
MMNA0 Y A1 sndA1 VNB nfet_01v8 m=4 w=0.65 l=0.15
MMNA1 sndA1 A2 VGND VNB nfet_01v8 m=4 w=0.65 l=0.15
MMNB0 Y B1 VGND VNB nfet_01v8 m=4 w=0.65 l=0.15
MMNC0 Y C1 VGND VNB nfet_01v8 m=4 w=0.65 l=0.15
MMND0 Y D1 VGND VNB nfet_01v8 m=4 w=0.65 l=0.15
.ENDS sky130_fd_sc_hd__a2111oi_4


.SUBCKT sky130_fd_sc_hd__a211o_1 A1 A2 B1 C1 VGND VNB VPB VPWR X
*.PININFO A1:I A2:I B1:I C1:I VGND:I VNB:I VPB:I VPWR:I X:O
MMPA0 pndA A1 VPWR VPB pfet_01v8_hvt w=1.0 l=0.15
MMPA1 pndA A2 VPWR VPB pfet_01v8_hvt w=1.0 l=0.15
MMPB0 pndB B1 pndA VPB pfet_01v8_hvt w=1.0 l=0.15
MMPC0 y C1 pndB VPB pfet_01v8_hvt w=1.0 l=0.15
MMIPX X y VPWR VPB pfet_01v8_hvt w=1.0 l=0.15
MMNA0 y A1 sndA1 VNB nfet_01v8 w=0.65 l=0.15
MMNA1 sndA1 A2 VGND VNB nfet_01v8 w=0.65 l=0.15
MMNB0 y B1 VGND VNB nfet_01v8 w=0.65 l=0.15
MMNC0 y C1 VGND VNB nfet_01v8 w=0.65 l=0.15
MMINX X y VGND VNB nfet_01v8 w=0.65 l=0.15
.ENDS sky130_fd_sc_hd__a211o_1


.SUBCKT sky130_fd_sc_hd__a211o_2 A1 A2 B1 C1 VGND VNB VPB VPWR X
*.PININFO A1:I A2:I B1:I C1:I VGND:I VNB:I VPB:I VPWR:I X:O
MMPA0 pndA A1 VPWR VPB pfet_01v8_hvt w=1.0 l=0.15
MMPA1 pndA A2 VPWR VPB pfet_01v8_hvt w=1.0 l=0.15
MMPB0 pndB B1 pndA VPB pfet_01v8_hvt w=1.0 l=0.15
MMPC0 y C1 pndB VPB pfet_01v8_hvt w=1.0 l=0.15
MMIPX X y VPWR VPB pfet_01v8_hvt m=2 w=1.0 l=0.15
MMNA0 y A1 sndA1 VNB nfet_01v8 w=0.65 l=0.15
MMNA1 sndA1 A2 VGND VNB nfet_01v8 w=0.65 l=0.15
MMNB0 y B1 VGND VNB nfet_01v8 w=0.65 l=0.15
MMNC0 y C1 VGND VNB nfet_01v8 w=0.65 l=0.15
MMINX X y VGND VNB nfet_01v8 m=2 w=0.65 l=0.15
.ENDS sky130_fd_sc_hd__a211o_2


.SUBCKT sky130_fd_sc_hd__a211o_4 A1 A2 B1 C1 VGND VNB VPB VPWR X
*.PININFO A1:I A2:I B1:I C1:I VGND:I VNB:I VPB:I VPWR:I X:O
MMPA0 pndA A1 VPWR VPB pfet_01v8_hvt m=2 w=1.0 l=0.15
MMPA1 pndA A2 VPWR VPB pfet_01v8_hvt m=2 w=1.0 l=0.15
MMPB0 pndB B1 pndA VPB pfet_01v8_hvt m=2 w=1.0 l=0.15
MMPC0 y C1 pndB VPB pfet_01v8_hvt m=2 w=1.0 l=0.15
MMIPX X y VPWR VPB pfet_01v8_hvt m=4 w=1.0 l=0.15
MMNA0 y A1 sndA1 VNB nfet_01v8 m=2 w=0.65 l=0.15
MMNA1 sndA1 A2 VGND VNB nfet_01v8 m=2 w=0.65 l=0.15
MMNB0 y B1 VGND VNB nfet_01v8 m=2 w=0.65 l=0.15
MMNC0 y C1 VGND VNB nfet_01v8 m=2 w=0.65 l=0.15
MMINX X y VGND VNB nfet_01v8 m=4 w=0.65 l=0.15
.ENDS sky130_fd_sc_hd__a211o_4


.SUBCKT sky130_fd_sc_hd__a211oi_1 A1 A2 B1 C1 VGND VNB VPB VPWR Y
*.PININFO A1:I A2:I B1:I C1:I VGND:I VNB:I VPB:I VPWR:I Y:O
MMPA0 pndA A1 VPWR VPB pfet_01v8_hvt w=1.0 l=0.15
MMPA1 pndA A2 VPWR VPB pfet_01v8_hvt w=1.0 l=0.15
MMPB0 pndB B1 pndA VPB pfet_01v8_hvt w=1.0 l=0.15
MMPC0 Y C1 pndB VPB pfet_01v8_hvt w=1.0 l=0.15
MMNA0 Y A1 sndA1 VNB nfet_01v8 w=0.65 l=0.15
MMNA1 sndA1 A2 VGND VNB nfet_01v8 w=0.65 l=0.15
MMNB0 Y B1 VGND VNB nfet_01v8 w=0.65 l=0.15
MMNC0 Y C1 VGND VNB nfet_01v8 w=0.65 l=0.15
.ENDS sky130_fd_sc_hd__a211oi_1


.SUBCKT sky130_fd_sc_hd__a211oi_2 A1 A2 B1 C1 VGND VNB VPB VPWR Y
*.PININFO A1:I A2:I B1:I C1:I VGND:I VNB:I VPB:I VPWR:I Y:O
MMPA0 pndA A1 VPWR VPB pfet_01v8_hvt m=2 w=1.0 l=0.15
MMPA1 pndA A2 VPWR VPB pfet_01v8_hvt m=2 w=1.0 l=0.15
MMPB0 pndB B1 pndA VPB pfet_01v8_hvt m=2 w=1.0 l=0.15
MMPC0 Y C1 pndB VPB pfet_01v8_hvt m=2 w=1.0 l=0.15
MMNA0 Y A1 sndA1 VNB nfet_01v8 m=2 w=0.65 l=0.15
MMNA1 sndA1 A2 VGND VNB nfet_01v8 m=2 w=0.65 l=0.15
MMNB0 Y B1 VGND VNB nfet_01v8 m=2 w=0.65 l=0.15
MMNC0 Y C1 VGND VNB nfet_01v8 m=2 w=0.65 l=0.15
.ENDS sky130_fd_sc_hd__a211oi_2


.SUBCKT sky130_fd_sc_hd__a211oi_4 A1 A2 B1 C1 VGND VNB VPB VPWR Y
*.PININFO A1:I A2:I B1:I C1:I VGND:I VNB:I VPB:I VPWR:I Y:O
MMPA0 pndA A1 VPWR VPB pfet_01v8_hvt m=4 w=1.0 l=0.15
MMPA1 pndA A2 VPWR VPB pfet_01v8_hvt m=4 w=1.0 l=0.15
MMPB0 pndB B1 pndA VPB pfet_01v8_hvt m=2 w=1.0 l=0.15
MMPC0 Y C1 pndB VPB pfet_01v8_hvt m=2 w=1.0 l=0.15
MMPB1 pndC B1 pndA VPB pfet_01v8_hvt m=2 w=1.0 l=0.15
MMPC1 Y C1 pndC VPB pfet_01v8_hvt m=2 w=1.0 l=0.15
MMNA0 Y A1 sndA1 VNB nfet_01v8 m=4 w=0.65 l=0.15
MMNA1 sndA1 A2 VGND VNB nfet_01v8 m=4 w=0.65 l=0.15
MMNB0 Y B1 VGND VNB nfet_01v8 m=4 w=0.65 l=0.15
MMNC0 Y C1 VGND VNB nfet_01v8 m=4 w=0.65 l=0.15
.ENDS sky130_fd_sc_hd__a211oi_4


.SUBCKT sky130_fd_sc_hd__a21bo_1 A1 A2 B1_N VGND VNB VPB VPWR X
*.PININFO A1:I A2:I B1_N:I VGND:I VNB:I VPB:I VPWR:I X:O
MMPA0 pndA A1 VPWR VPB pfet_01v8_hvt w=1.0 l=0.15
MMPA1 pndA A2 VPWR VPB pfet_01v8_hvt w=1.0 l=0.15
MMPB0 y B1 pndA VPB pfet_01v8_hvt w=1.0 l=0.15
MMIPB1N B1 B1_N VPWR VPB pfet_01v8_hvt w=0.42 l=0.15
MMIPX X y VPWR VPB pfet_01v8_hvt w=1.0 l=0.15
MMNA0 y A1 sndA1 VNB nfet_01v8 w=0.65 l=0.15
MMNA1 sndA1 A2 VGND VNB nfet_01v8 w=0.65 l=0.15
MMNB0 y B1 VGND VNB nfet_01v8 w=0.65 l=0.15
MMINB1N B1 B1_N VGND VNB nfet_01v8 w=0.42 l=0.15
MMINX X y VGND VNB nfet_01v8 w=0.65 l=0.15
.ENDS sky130_fd_sc_hd__a21bo_1


.SUBCKT sky130_fd_sc_hd__a21bo_2 A1 A2 B1_N VGND VNB VPB VPWR X
*.PININFO A1:I A2:I B1_N:I VGND:I VNB:I VPB:I VPWR:I X:O
MMPA0 pndA A1 VPWR VPB pfet_01v8_hvt w=1.0 l=0.15
MMPA1 pndA A2 VPWR VPB pfet_01v8_hvt w=1.0 l=0.15
MMPB0 y B1 pndA VPB pfet_01v8_hvt w=1.0 l=0.15
MMIPB1N B1 B1_N VPWR VPB pfet_01v8_hvt w=0.42 l=0.15
MMIPX X y VPWR VPB pfet_01v8_hvt m=2 w=1.0 l=0.15
MMNA0 y A1 sndA1 VNB nfet_01v8 w=0.65 l=0.15
MMNA1 sndA1 A2 VGND VNB nfet_01v8 w=0.65 l=0.15
MMNB0 y B1 VGND VNB nfet_01v8 w=0.65 l=0.15
MMINB1N B1 B1_N VGND VNB nfet_01v8 w=0.42 l=0.15
MMINX X y VGND VNB nfet_01v8 m=2 w=0.65 l=0.15
.ENDS sky130_fd_sc_hd__a21bo_2


.SUBCKT sky130_fd_sc_hd__a21bo_4 A1 A2 B1_N VGND VNB VPB VPWR X
*.PININFO A1:I A2:I B1_N:I VGND:I VNB:I VPB:I VPWR:I X:O
MMPA0 pndA A1 VPWR VPB pfet_01v8_hvt m=2 w=1.0 l=0.15
MMPA1 pndA A2 VPWR VPB pfet_01v8_hvt m=2 w=1.0 l=0.15
MMPB0 y B1 pndA VPB pfet_01v8_hvt m=2 w=1.0 l=0.15
MMIPB1N B1 B1_N VPWR VPB pfet_01v8_hvt w=1.0 l=0.15
MMIPX X y VPWR VPB pfet_01v8_hvt m=4 w=1.0 l=0.15
MMNA0 y A1 sndA1 VNB nfet_01v8 m=2 w=0.65 l=0.15
MMNA1 sndA1 A2 VGND VNB nfet_01v8 m=2 w=0.65 l=0.15
MMNB0 y B1 VGND VNB nfet_01v8 m=2 w=0.65 l=0.15
MMINB1N B1 B1_N VGND VNB nfet_01v8 w=0.65 l=0.15
MMINX X y VGND VNB nfet_01v8 m=4 w=0.65 l=0.15
.ENDS sky130_fd_sc_hd__a21bo_4


.SUBCKT sky130_fd_sc_hd__a21boi_0 A1 A2 B1_N VGND VNB VPB VPWR Y
*.PININFO A1:I A2:I B1_N:I VGND:I VNB:I VPB:I VPWR:I Y:O
MMPA0 net40 A1 VPWR VPB pfet_01v8_hvt w=0.64 l=0.15
MMPA1 net40 A2 VPWR VPB pfet_01v8_hvt w=0.64 l=0.15
MMPB0 Y B1 net40 VPB pfet_01v8_hvt w=0.64 l=0.15
MMIPB1N B1 B1_N VPWR VPB pfet_01v8_hvt w=0.42 l=0.15
MMNA0 Y A1 sndA1 VNB nfet_01v8 w=0.42 l=0.15
MMNA1 sndA1 A2 VGND VNB nfet_01v8 w=0.42 l=0.15
MMNB0 Y B1 VGND VNB nfet_01v8 w=0.42 l=0.15
MMINB1N B1 B1_N VGND VNB nfet_01v8 w=0.42 l=0.15
.ENDS sky130_fd_sc_hd__a21boi_0


.SUBCKT sky130_fd_sc_hd__a21boi_1 A1 A2 B1_N VGND VNB VPB VPWR Y
*.PININFO A1:I A2:I B1_N:I VGND:I VNB:I VPB:I VPWR:I Y:O
MMPA0 net40 A1 VPWR VPB pfet_01v8_hvt w=1.0 l=0.15
MMPA1 net40 A2 VPWR VPB pfet_01v8_hvt w=1.0 l=0.15
MMPB0 Y B1 net40 VPB pfet_01v8_hvt w=1.0 l=0.15
MMIPB1N B1 B1_N VPWR VPB pfet_01v8_hvt w=0.42 l=0.15
MMNA0 Y A1 sndA1 VNB nfet_01v8 w=0.65 l=0.15
MMNA1 sndA1 A2 VGND VNB nfet_01v8 w=0.65 l=0.15
MMNB0 Y B1 VGND VNB nfet_01v8 w=0.65 l=0.15
MMINB1N B1 B1_N VGND VNB nfet_01v8 w=0.42 l=0.15
.ENDS sky130_fd_sc_hd__a21boi_1


.SUBCKT sky130_fd_sc_hd__a21boi_2 A1 A2 B1_N VGND VNB VPB VPWR Y
*.PININFO A1:I A2:I B1_N:I VGND:I VNB:I VPB:I VPWR:I Y:O
MMPA0 net40 A1 VPWR VPB pfet_01v8_hvt m=2 w=1.0 l=0.15
MMPA1 net40 A2 VPWR VPB pfet_01v8_hvt m=2 w=1.0 l=0.15
MMPB0 Y B1 net40 VPB pfet_01v8_hvt m=2 w=1.0 l=0.15
MMIPB1N B1 B1_N VPWR VPB pfet_01v8_hvt w=0.42 l=0.15
MMNA0 Y A1 sndA1 VNB nfet_01v8 m=2 w=0.65 l=0.15
MMNA1 sndA1 A2 VGND VNB nfet_01v8 m=2 w=0.65 l=0.15
MMNB0 Y B1 VGND VNB nfet_01v8 m=2 w=0.65 l=0.15
MMINB1N B1 B1_N VGND VNB nfet_01v8 w=0.42 l=0.15
.ENDS sky130_fd_sc_hd__a21boi_2


.SUBCKT sky130_fd_sc_hd__a21boi_4 A1 A2 B1_N VGND VNB VPB VPWR Y
*.PININFO A1:I A2:I B1_N:I VGND:I VNB:I VPB:I VPWR:I Y:O
MMPA0 net40 A1 VPWR VPB pfet_01v8_hvt m=4 w=1.0 l=0.15
MMPA1 net40 A2 VPWR VPB pfet_01v8_hvt m=4 w=1.0 l=0.15
MMPB0 Y B1 net40 VPB pfet_01v8_hvt m=4 w=1.0 l=0.15
MMIPB1N B1 B1_N VPWR VPB pfet_01v8_hvt w=1.0 l=0.15
MMNA0 Y A1 sndA1 VNB nfet_01v8 m=4 w=0.65 l=0.15
MMNA1 sndA1 A2 VGND VNB nfet_01v8 m=4 w=0.65 l=0.15
MMNB0 Y B1 VGND VNB nfet_01v8 m=4 w=0.65 l=0.15
MMINB1N B1 B1_N VGND VNB nfet_01v8 w=0.65 l=0.15
.ENDS sky130_fd_sc_hd__a21boi_4


.SUBCKT sky130_fd_sc_hd__a21o_1 A1 A2 B1 VGND VNB VPB VPWR X
*.PININFO A1:I A2:I B1:I VGND:I VNB:I VPB:I VPWR:I X:O
MMPA0 pndA A1 VPWR VPB pfet_01v8_hvt w=1.0 l=0.15
MMPA1 pndA A2 VPWR VPB pfet_01v8_hvt w=1.0 l=0.15
MMPB0 y B1 pndA VPB pfet_01v8_hvt w=1.0 l=0.15
MMIPX X y VPWR VPB pfet_01v8_hvt w=1.0 l=0.15
MMNA0 y A1 sndA1 VNB nfet_01v8 w=0.65 l=0.15
MMNA1 sndA1 A2 VGND VNB nfet_01v8 w=0.65 l=0.15
MMNB0 y B1 VGND VNB nfet_01v8 w=0.65 l=0.15
MMINX X y VGND VNB nfet_01v8 w=0.65 l=0.15
.ENDS sky130_fd_sc_hd__a21o_1


.SUBCKT sky130_fd_sc_hd__a21o_2 A1 A2 B1 VGND VNB VPB VPWR X
*.PININFO A1:I A2:I B1:I VGND:I VNB:I VPB:I VPWR:I X:O
MMPA0 pndA A1 VPWR VPB pfet_01v8_hvt w=1.0 l=0.15
MMPA1 pndA A2 VPWR VPB pfet_01v8_hvt w=1.0 l=0.15
MMPB0 y B1 pndA VPB pfet_01v8_hvt w=1.0 l=0.15
MMIPX X y VPWR VPB pfet_01v8_hvt m=2 w=1.0 l=0.15
MMNA0 y A1 sndA1 VNB nfet_01v8 w=0.65 l=0.15
MMNA1 sndA1 A2 VGND VNB nfet_01v8 w=0.65 l=0.15
MMNB0 y B1 VGND VNB nfet_01v8 w=0.65 l=0.15
MMINX X y VGND VNB nfet_01v8 m=2 w=0.65 l=0.15
.ENDS sky130_fd_sc_hd__a21o_2


.SUBCKT sky130_fd_sc_hd__a21o_4 A1 A2 B1 VGND VNB VPB VPWR X
*.PININFO A1:I A2:I B1:I VGND:I VNB:I VPB:I VPWR:I X:O
MMPA0 pndA A1 VPWR VPB pfet_01v8_hvt m=2 w=1.0 l=0.15
MMPA1 pndA A2 VPWR VPB pfet_01v8_hvt m=2 w=1.0 l=0.15
MMPB0 y B1 pndA VPB pfet_01v8_hvt m=2 w=1.0 l=0.15
MMIPX X y VPWR VPB pfet_01v8_hvt m=4 w=1.0 l=0.15
MMNA0 y A1 sndA1 VNB nfet_01v8 m=2 w=0.65 l=0.15
MMNA1 sndA1 A2 VGND VNB nfet_01v8 m=2 w=0.65 l=0.15
MMNB0 y B1 VGND VNB nfet_01v8 m=2 w=0.65 l=0.15
MMINX X y VGND VNB nfet_01v8 m=4 w=0.65 l=0.15
.ENDS sky130_fd_sc_hd__a21o_4


.SUBCKT sky130_fd_sc_hd__a21oi_1 A1 A2 B1 VGND VNB VPB VPWR Y
*.PININFO A1:I A2:I B1:I VGND:I VNB:I VPB:I VPWR:I Y:O
MMPA0 pndA A1 VPWR VPB pfet_01v8_hvt w=1.0 l=0.15
MMPA1 pndA A2 VPWR VPB pfet_01v8_hvt w=1.0 l=0.15
MMPB0 Y B1 pndA VPB pfet_01v8_hvt w=1.0 l=0.15
MMNA0 Y A1 sndA1 VNB nfet_01v8 w=0.65 l=0.15
MMNA1 sndA1 A2 VGND VNB nfet_01v8 w=0.65 l=0.15
MMNB0 Y B1 VGND VNB nfet_01v8 w=0.65 l=0.15
.ENDS sky130_fd_sc_hd__a21oi_1


.SUBCKT sky130_fd_sc_hd__a21oi_2 A1 A2 B1 VGND VNB VPB VPWR Y
*.PININFO A1:I A2:I B1:I VGND:I VNB:I VPB:I VPWR:I Y:O
MMPA0 pndA A1 VPWR VPB pfet_01v8_hvt m=2 w=1.0 l=0.15
MMPA1 pndA A2 VPWR VPB pfet_01v8_hvt m=2 w=1.0 l=0.15
MMPB0 Y B1 pndA VPB pfet_01v8_hvt m=2 w=1.0 l=0.15
MMNA0 Y A1 sndA1 VNB nfet_01v8 m=2 w=0.65 l=0.15
MMNA1 sndA1 A2 VGND VNB nfet_01v8 m=2 w=0.65 l=0.15
MMNB0 Y B1 VGND VNB nfet_01v8 m=2 w=0.65 l=0.15
.ENDS sky130_fd_sc_hd__a21oi_2


.SUBCKT sky130_fd_sc_hd__a21oi_4 A1 A2 B1 VGND VNB VPB VPWR Y
*.PININFO A1:I A2:I B1:I VGND:I VNB:I VPB:I VPWR:I Y:O
MMPA0 pndA A1 VPWR VPB pfet_01v8_hvt m=4 w=1.0 l=0.15
MMPA1 pndA A2 VPWR VPB pfet_01v8_hvt m=4 w=1.0 l=0.15
MMPB0 Y B1 pndA VPB pfet_01v8_hvt m=4 w=1.0 l=0.15
MMNA0 Y A1 sndA1 VNB nfet_01v8 m=4 w=0.65 l=0.15
MMNA1 sndA1 A2 VGND VNB nfet_01v8 m=4 w=0.65 l=0.15
MMNB0 Y B1 VGND VNB nfet_01v8 m=4 w=0.65 l=0.15
.ENDS sky130_fd_sc_hd__a21oi_4


.SUBCKT sky130_fd_sc_hd__a221o_1 A1 A2 B1 B2 C1 VGND VNB VPB VPWR X
*.PININFO A1:I A2:I B1:I B2:I C1:I VGND:I VNB:I VPB:I VPWR:I X:O
MMPA0 pndA A1 VPWR VPB pfet_01v8_hvt w=1.0 l=0.15
MMPA1 pndA A2 VPWR VPB pfet_01v8_hvt w=1.0 l=0.15
MMPB0 pndB B1 pndA VPB pfet_01v8_hvt w=1.0 l=0.15
MMPB1 pndB B2 pndA VPB pfet_01v8_hvt w=1.0 l=0.15
MMPC0 y C1 pndB VPB pfet_01v8_hvt w=1.0 l=0.15
MMIPX X y VPWR VPB pfet_01v8_hvt w=1.0 l=0.15
MMNA0 y A1 sndA1 VNB nfet_01v8 w=0.65 l=0.15
MMNA1 sndA1 A2 VGND VNB nfet_01v8 w=0.65 l=0.15
MMNB0 y B1 sndB1 VNB nfet_01v8 w=0.65 l=0.15
MMNB1 sndB1 B2 VGND VNB nfet_01v8 w=0.65 l=0.15
MMNC0 y C1 VGND VNB nfet_01v8 w=0.65 l=0.15
MMINX X y VGND VNB nfet_01v8 w=0.65 l=0.15
.ENDS sky130_fd_sc_hd__a221o_1


.SUBCKT sky130_fd_sc_hd__a221o_2 A1 A2 B1 B2 C1 VGND VNB VPB VPWR X
*.PININFO A1:I A2:I B1:I B2:I C1:I VGND:I VNB:I VPB:I VPWR:I X:O
MMPA0 pndA A1 VPWR VPB pfet_01v8_hvt w=1.0 l=0.15
MMPA1 pndA A2 VPWR VPB pfet_01v8_hvt w=1.0 l=0.15
MMPB0 pndB B1 pndA VPB pfet_01v8_hvt w=1.0 l=0.15
MMPB1 pndB B2 pndA VPB pfet_01v8_hvt w=1.0 l=0.15
MMPC0 y C1 pndB VPB pfet_01v8_hvt w=1.0 l=0.15
MMIPX X y VPWR VPB pfet_01v8_hvt m=2 w=1.0 l=0.15
MMNA0 y A1 sndA1 VNB nfet_01v8 w=0.65 l=0.15
MMNA1 sndA1 A2 VGND VNB nfet_01v8 w=0.65 l=0.15
MMNB0 y B1 sndB1 VNB nfet_01v8 w=0.65 l=0.15
MMNB1 sndB1 B2 VGND VNB nfet_01v8 w=0.65 l=0.15
MMNC0 y C1 VGND VNB nfet_01v8 w=0.65 l=0.15
MMINX X y VGND VNB nfet_01v8 m=2 w=0.65 l=0.15
.ENDS sky130_fd_sc_hd__a221o_2


.SUBCKT sky130_fd_sc_hd__a221o_4 A1 A2 B1 B2 C1 VGND VNB VPB VPWR X
*.PININFO A1:I A2:I B1:I B2:I C1:I VGND:I VNB:I VPB:I VPWR:I X:O
MMPA0 pndA A1 VPWR VPB pfet_01v8_hvt m=2 w=1.0 l=0.15
MMPA1 pndA A2 VPWR VPB pfet_01v8_hvt m=2 w=1.0 l=0.15
MMPB0 pndB B1 pndA VPB pfet_01v8_hvt m=2 w=1.0 l=0.15
MMPB1 pndB B2 pndA VPB pfet_01v8_hvt m=2 w=1.0 l=0.15
MMPC0 y C1 pndB VPB pfet_01v8_hvt m=2 w=1.0 l=0.15
MMIPX X y VPWR VPB pfet_01v8_hvt m=4 w=1.0 l=0.15
MMNA0 y A1 sndA1 VNB nfet_01v8 m=2 w=0.65 l=0.15
MMNA1 sndA1 A2 VGND VNB nfet_01v8 m=2 w=0.65 l=0.15
MMNB0 y B1 sndB1 VNB nfet_01v8 m=2 w=0.65 l=0.15
MMNB1 sndB1 B2 VGND VNB nfet_01v8 m=2 w=0.65 l=0.15
MMNC0 y C1 VGND VNB nfet_01v8 m=2 w=0.65 l=0.15
MMINX X y VGND VNB nfet_01v8 m=4 w=0.65 l=0.15
.ENDS sky130_fd_sc_hd__a221o_4


.SUBCKT sky130_fd_sc_hd__a221oi_1 A1 A2 B1 B2 C1 VGND VNB VPB VPWR Y
*.PININFO A1:I A2:I B1:I B2:I C1:I VGND:I VNB:I VPB:I VPWR:I Y:O
MMPA0 pndA A1 VPWR VPB pfet_01v8_hvt w=1.0 l=0.15
MMPA1 pndA A2 VPWR VPB pfet_01v8_hvt w=1.0 l=0.15
MMPB0 pndB B1 pndA VPB pfet_01v8_hvt w=1.0 l=0.15
MMPB1 pndB B2 pndA VPB pfet_01v8_hvt w=1.0 l=0.15
MMPC0 Y C1 pndB VPB pfet_01v8_hvt w=1.0 l=0.15
MMNA0 Y A1 sndA1 VNB nfet_01v8 w=0.65 l=0.15
MMNA1 sndA1 A2 VGND VNB nfet_01v8 w=0.65 l=0.15
MMNB0 Y B1 sndB1 VNB nfet_01v8 w=0.65 l=0.15
MMNB1 sndB1 B2 VGND VNB nfet_01v8 w=0.65 l=0.15
MMNC0 Y C1 VGND VNB nfet_01v8 w=0.65 l=0.15
.ENDS sky130_fd_sc_hd__a221oi_1


.SUBCKT sky130_fd_sc_hd__a221oi_2 A1 A2 B1 B2 C1 VGND VNB VPB VPWR Y
*.PININFO A1:I A2:I B1:I B2:I C1:I VGND:I VNB:I VPB:I VPWR:I Y:O
MMPA0 pndA A1 VPWR VPB pfet_01v8_hvt m=2 w=1.0 l=0.15
MMPA1 pndA A2 VPWR VPB pfet_01v8_hvt m=2 w=1.0 l=0.15
MMPB0 pndB B1 pndA VPB pfet_01v8_hvt m=2 w=1.0 l=0.15
MMPB1 pndB B2 pndA VPB pfet_01v8_hvt m=2 w=1.0 l=0.15
MMPC0 Y C1 pndB VPB pfet_01v8_hvt m=2 w=1.0 l=0.15
MMNA0 Y A1 sndA1 VNB nfet_01v8 m=2 w=0.65 l=0.15
MMNA1 sndA1 A2 VGND VNB nfet_01v8 m=2 w=0.65 l=0.15
MMNB0 Y B1 sndB1 VNB nfet_01v8 m=2 w=0.65 l=0.15
MMNB1 sndB1 B2 VGND VNB nfet_01v8 m=2 w=0.65 l=0.15
MMNC0 Y C1 VGND VNB nfet_01v8 m=2 w=0.65 l=0.15
.ENDS sky130_fd_sc_hd__a221oi_2


.SUBCKT sky130_fd_sc_hd__a221oi_4 A1 A2 B1 B2 C1 VGND VNB VPB VPWR Y
*.PININFO A1:I A2:I B1:I B2:I C1:I VGND:I VNB:I VPB:I VPWR:I Y:O
MMPA0 pndA A1 VPWR VPB pfet_01v8_hvt m=4 w=1.0 l=0.15
MMPA1 pndA A2 VPWR VPB pfet_01v8_hvt m=4 w=1.0 l=0.15
MMPB0 pndB B1 pndA VPB pfet_01v8_hvt m=4 w=1.0 l=0.15
MMPB1 pndB B2 pndA VPB pfet_01v8_hvt m=4 w=1.0 l=0.15
MMPC0 Y C1 pndB VPB pfet_01v8_hvt m=4 w=1.0 l=0.15
MMNA0 Y A1 sndA1 VNB nfet_01v8 m=4 w=0.65 l=0.15
MMNA1 sndA1 A2 VGND VNB nfet_01v8 m=4 w=0.65 l=0.15
MMNB0 Y B1 sndB1 VNB nfet_01v8 m=4 w=0.65 l=0.15
MMNB1 sndB1 B2 VGND VNB nfet_01v8 m=4 w=0.65 l=0.15
MMNC0 Y C1 VGND VNB nfet_01v8 m=4 w=0.65 l=0.15
.ENDS sky130_fd_sc_hd__a221oi_4


.SUBCKT sky130_fd_sc_hd__a222oi_1 A1 A2 B1 B2 C1 C2 VGND VNB VPB VPWR Y
*.PININFO A1:I A2:I B1:I B2:I C1:I C2:I VGND:I VNB:I VPB:I VPWR:I Y:O
MMPA0 pndA A1 VPWR VPB pfet_01v8_hvt w=1.0 l=0.15
MMPA1 pndA A2 VPWR VPB pfet_01v8_hvt w=1.0 l=0.15
MMPB0 pndB B1 pndA VPB pfet_01v8_hvt w=1.0 l=0.15
MMPB1 pndB B2 pndA VPB pfet_01v8_hvt w=1.0 l=0.15
MMPC0 Y C1 pndB VPB pfet_01v8_hvt w=1.0 l=0.15
MI8 Y C2 pndB VPB pfet_01v8_hvt w=1.0 l=0.15
MMNA0 Y A1 sndA1 VNB nfet_01v8 w=0.64 l=0.15
MMNA1 sndA1 A2 VGND VNB nfet_01v8 w=0.64 l=0.15
MMNB0 Y B1 sndB1 VNB nfet_01v8 w=0.64 l=0.15
MMNB1 sndB1 B2 VGND VNB nfet_01v8 w=0.64 l=0.15
MMNC0 Y C1 net62 VNB nfet_01v8 w=0.64 l=0.15
MI10 net62 C2 VGND VNB nfet_01v8 w=0.64 l=0.15
.ENDS sky130_fd_sc_hd__a222oi_1


.SUBCKT sky130_fd_sc_hd__a22o_1 A1 A2 B1 B2 VGND VNB VPB VPWR X
*.PININFO A1:I A2:I B1:I B2:I VGND:I VNB:I VPB:I VPWR:I X:O
MMPA0 pndA A1 VPWR VPB pfet_01v8_hvt w=1.0 l=0.15
MMPA1 pndA A2 VPWR VPB pfet_01v8_hvt w=1.0 l=0.15
MMPB0 y B1 pndA VPB pfet_01v8_hvt w=1.0 l=0.15
MMPB1 y B2 pndA VPB pfet_01v8_hvt w=1.0 l=0.15
MMIPX X y VPWR VPB pfet_01v8_hvt w=1.0 l=0.15
MMNA0 y A1 sndA1 VNB nfet_01v8 w=0.65 l=0.15
MMNA1 sndA1 A2 VGND VNB nfet_01v8 w=0.65 l=0.15
MMNB0 y B1 sndB1 VNB nfet_01v8 w=0.65 l=0.15
MMNB1 sndB1 B2 VGND VNB nfet_01v8 w=0.65 l=0.15
MMINX X y VGND VNB nfet_01v8 w=0.65 l=0.15
.ENDS sky130_fd_sc_hd__a22o_1


.SUBCKT sky130_fd_sc_hd__a22o_2 A1 A2 B1 B2 VGND VNB VPB VPWR X
*.PININFO A1:I A2:I B1:I B2:I VGND:I VNB:I VPB:I VPWR:I X:O
MMPA0 pndA A1 VPWR VPB pfet_01v8_hvt w=1.0 l=0.15
MMPA1 pndA A2 VPWR VPB pfet_01v8_hvt w=1.0 l=0.15
MMPB0 y B1 pndA VPB pfet_01v8_hvt w=1.0 l=0.15
MMPB1 y B2 pndA VPB pfet_01v8_hvt w=1.0 l=0.15
MMIPX X y VPWR VPB pfet_01v8_hvt m=2 w=1.0 l=0.15
MMNA0 y A1 sndA1 VNB nfet_01v8 w=0.65 l=0.15
MMNA1 sndA1 A2 VGND VNB nfet_01v8 w=0.65 l=0.15
MMNB0 y B1 sndB1 VNB nfet_01v8 w=0.65 l=0.15
MMNB1 sndB1 B2 VGND VNB nfet_01v8 w=0.65 l=0.15
MMINX X y VGND VNB nfet_01v8 m=2 w=0.65 l=0.15
.ENDS sky130_fd_sc_hd__a22o_2


.SUBCKT sky130_fd_sc_hd__a22o_4 A1 A2 B1 B2 VGND VNB VPB VPWR X
*.PININFO A1:I A2:I B1:I B2:I VGND:I VNB:I VPB:I VPWR:I X:O
MMPA0 pndA A1 VPWR VPB pfet_01v8_hvt m=2 w=1.0 l=0.15
MMPA1 pndA A2 VPWR VPB pfet_01v8_hvt m=2 w=1.0 l=0.15
MMPB0 y B1 pndA VPB pfet_01v8_hvt m=2 w=1.0 l=0.15
MMPB1 y B2 pndA VPB pfet_01v8_hvt m=2 w=1.0 l=0.15
MMIPX X y VPWR VPB pfet_01v8_hvt m=4 w=1.0 l=0.15
MMNA0 y A1 sndA1 VNB nfet_01v8 m=2 w=0.65 l=0.15
MMNA1 sndA1 A2 VGND VNB nfet_01v8 m=2 w=0.65 l=0.15
MMNB0 y B1 sndB1 VNB nfet_01v8 m=2 w=0.65 l=0.15
MMNB1 sndB1 B2 VGND VNB nfet_01v8 m=2 w=0.65 l=0.15
MMINX X y VGND VNB nfet_01v8 m=4 w=0.65 l=0.15
.ENDS sky130_fd_sc_hd__a22o_4


.SUBCKT sky130_fd_sc_hd__a22oi_1 A1 A2 B1 B2 VGND VNB VPB VPWR Y
*.PININFO A1:I A2:I B1:I B2:I VGND:I VNB:I VPB:I VPWR:I Y:O
MMPA0 pndA A1 VPWR VPB pfet_01v8_hvt w=1.0 l=0.15
MMPA1 pndA A2 VPWR VPB pfet_01v8_hvt w=1.0 l=0.15
MMPB0 Y B1 pndA VPB pfet_01v8_hvt w=1.0 l=0.15
MMPB1 Y B2 pndA VPB pfet_01v8_hvt w=1.0 l=0.15
MMNA0 Y A1 sndA1 VNB nfet_01v8 w=0.65 l=0.15
MMNA1 sndA1 A2 VGND VNB nfet_01v8 w=0.65 l=0.15
MMNB0 Y B1 sndB1 VNB nfet_01v8 w=0.65 l=0.15
MMNB1 sndB1 B2 VGND VNB nfet_01v8 w=0.65 l=0.15
.ENDS sky130_fd_sc_hd__a22oi_1


.SUBCKT sky130_fd_sc_hd__a22oi_2 A1 A2 B1 B2 VGND VNB VPB VPWR Y
*.PININFO A1:I A2:I B1:I B2:I VGND:I VNB:I VPB:I VPWR:I Y:O
MMPA0 pndA A1 VPWR VPB pfet_01v8_hvt m=2 w=1.0 l=0.15
MMPA1 pndA A2 VPWR VPB pfet_01v8_hvt m=2 w=1.0 l=0.15
MMPB0 Y B1 pndA VPB pfet_01v8_hvt m=2 w=1.0 l=0.15
MMPB1 Y B2 pndA VPB pfet_01v8_hvt m=2 w=1.0 l=0.15
MMNA0 Y A1 sndA1 VNB nfet_01v8 m=2 w=0.65 l=0.15
MMNA1 sndA1 A2 VGND VNB nfet_01v8 m=2 w=0.65 l=0.15
MMNB0 Y B1 sndB1 VNB nfet_01v8 m=2 w=0.65 l=0.15
MMNB1 sndB1 B2 VGND VNB nfet_01v8 m=2 w=0.65 l=0.15
.ENDS sky130_fd_sc_hd__a22oi_2


.SUBCKT sky130_fd_sc_hd__a22oi_4 A1 A2 B1 B2 VGND VNB VPB VPWR Y
*.PININFO A1:I A2:I B1:I B2:I VGND:I VNB:I VPB:I VPWR:I Y:O
MMPA0 pndA A1 VPWR VPB pfet_01v8_hvt m=4 w=1.0 l=0.15
MMPA1 pndA A2 VPWR VPB pfet_01v8_hvt m=4 w=1.0 l=0.15
MMPB0 Y B1 pndA VPB pfet_01v8_hvt m=4 w=1.0 l=0.15
MMPB1 Y B2 pndA VPB pfet_01v8_hvt m=4 w=1.0 l=0.15
MMNA0 Y A1 sndA1 VNB nfet_01v8 m=4 w=0.65 l=0.15
MMNA1 sndA1 A2 VGND VNB nfet_01v8 m=4 w=0.65 l=0.15
MMNB0 Y B1 sndB1 VNB nfet_01v8 m=4 w=0.65 l=0.15
MMNB1 sndB1 B2 VGND VNB nfet_01v8 m=4 w=0.65 l=0.15
.ENDS sky130_fd_sc_hd__a22oi_4


.SUBCKT sky130_fd_sc_hd__a2bb2o_1 A1_N A2_N B1 B2 VGND VNB VPB VPWR X
*.PININFO A1_N:I A2_N:I B1:I B2:I VGND:I VNB:I VPB:I VPWR:I X:O
MMIN2 X y VGND VNB nfet_01v8 w=0.65 l=0.15
MMNnor0 inor A1_N VGND VNB nfet_01v8 w=0.42 l=0.15
MMNnor1 inor A2_N VGND VNB nfet_01v8 w=0.42 l=0.15
MMNaoi10 VGND B1 sndNB1 VNB nfet_01v8 w=0.42 l=0.15
MMNaoi11 sndNB1 B2 y VNB nfet_01v8 w=0.42 l=0.15
MMNaoi20 y inor VGND VNB nfet_01v8 w=0.42 l=0.15
MMPaoi20 y inor pmid VPB pfet_01v8_hvt w=0.42 l=0.15
MMIP2 X y VPWR VPB pfet_01v8_hvt w=1.0 l=0.15
MMPnor0 VPWR A1_N sndPA1N VPB pfet_01v8_hvt w=0.42 l=0.15
MMPnor1 sndPA1N A2_N inor VPB pfet_01v8_hvt w=0.42 l=0.15
MMPaoi10 pmid B1 VPWR VPB pfet_01v8_hvt w=0.42 l=0.15
MMPaoi11 pmid B2 VPWR VPB pfet_01v8_hvt w=0.42 l=0.15
.ENDS sky130_fd_sc_hd__a2bb2o_1


.SUBCKT sky130_fd_sc_hd__a2bb2o_2 A1_N A2_N B1 B2 VGND VNB VPB VPWR X
*.PININFO A1_N:I A2_N:I B1:I B2:I VGND:I VNB:I VPB:I VPWR:I X:O
MMIN2 X y VGND VNB nfet_01v8 m=2 w=0.65 l=0.15
MMNnor0 inor A1_N VGND VNB nfet_01v8 w=0.42 l=0.15
MMNnor1 inor A2_N VGND VNB nfet_01v8 w=0.42 l=0.15
MMNaoi10 VGND B1 sndNB1 VNB nfet_01v8 w=0.42 l=0.15
MMNaoi11 sndNB1 B2 y VNB nfet_01v8 w=0.42 l=0.15
MMNaoi20 y inor VGND VNB nfet_01v8 w=0.42 l=0.15
MMPaoi20 y inor pmid VPB pfet_01v8_hvt w=0.64 l=0.15
MMIP2 X y VPWR VPB pfet_01v8_hvt m=2 w=1.0 l=0.15
MMPnor0 VPWR A1_N sndPA1N VPB pfet_01v8_hvt w=0.64 l=0.15
MMPnor1 sndPA1N A2_N inor VPB pfet_01v8_hvt w=0.64 l=0.15
MMPaoi10 pmid B1 VPWR VPB pfet_01v8_hvt w=0.64 l=0.15
MMPaoi11 pmid B2 VPWR VPB pfet_01v8_hvt w=0.64 l=0.15
.ENDS sky130_fd_sc_hd__a2bb2o_2


.SUBCKT sky130_fd_sc_hd__a2bb2o_4 A1_N A2_N B1 B2 VGND VNB VPB VPWR X
*.PININFO A1_N:I A2_N:I B1:I B2:I VGND:I VNB:I VPB:I VPWR:I X:O
MMIN2 X y VGND VNB nfet_01v8 m=4 w=0.65 l=0.15
MMNnor0 inor A1_N VGND VNB nfet_01v8 m=2 w=0.65 l=0.15
MMNnor1 inor A2_N VGND VNB nfet_01v8 m=2 w=0.65 l=0.15
MMNaoi10 VGND B1 sndNB1 VNB nfet_01v8 m=2 w=0.65 l=0.15
MMNaoi11 sndNB1 B2 y VNB nfet_01v8 m=2 w=0.65 l=0.15
MMNaoi20 y inor VGND VNB nfet_01v8 m=2 w=0.65 l=0.15
MMPaoi20 y inor pmid VPB pfet_01v8_hvt m=2 w=1.0 l=0.15
MMIP2 X y VPWR VPB pfet_01v8_hvt m=4 w=1.0 l=0.15
MMPnor0 VPWR A1_N sndPA1N VPB pfet_01v8_hvt m=2 w=1.0 l=0.15
MMPnor1 sndPA1N A2_N inor VPB pfet_01v8_hvt m=2 w=1.0 l=0.15
MMPaoi10 pmid B1 VPWR VPB pfet_01v8_hvt m=2 w=1.0 l=0.15
MMPaoi11 pmid B2 VPWR VPB pfet_01v8_hvt m=2 w=1.0 l=0.15
.ENDS sky130_fd_sc_hd__a2bb2o_4


.SUBCKT sky130_fd_sc_hd__a2bb2oi_1 A1_N A2_N B1 B2 VGND VNB VPB VPWR Y
*.PININFO A1_N:I A2_N:I B1:I B2:I VGND:I VNB:I VPB:I VPWR:I Y:O
MMNnor0 inor A1_N VGND VNB nfet_01v8 w=0.65 l=0.15
MMNnor1 inor A2_N VGND VNB nfet_01v8 w=0.65 l=0.15
MMNaoi10 VGND B1 sndNB1 VNB nfet_01v8 w=0.65 l=0.15
MMNaoi11 sndNB1 B2 Y VNB nfet_01v8 w=0.65 l=0.15
MMNaoi20 Y inor VGND VNB nfet_01v8 w=0.65 l=0.15
MMPnor0 VPWR A1_N sndPA1N VPB pfet_01v8_hvt w=1.0 l=0.15
MMPnor1 sndPA1N A2_N inor VPB pfet_01v8_hvt w=1.0 l=0.15
MMPaoi10 pmid B1 VPWR VPB pfet_01v8_hvt w=1.0 l=0.15
MMPaoi11 pmid B2 VPWR VPB pfet_01v8_hvt w=1.0 l=0.15
MMPaoi20 Y inor pmid VPB pfet_01v8_hvt w=1.0 l=0.15
.ENDS sky130_fd_sc_hd__a2bb2oi_1


.SUBCKT sky130_fd_sc_hd__a2bb2oi_2 A1_N A2_N B1 B2 VGND VNB VPB VPWR Y
*.PININFO A1_N:I A2_N:I B1:I B2:I VGND:I VNB:I VPB:I VPWR:I Y:O
MMNnor0 inor A1_N VGND VNB nfet_01v8 m=2 w=0.65 l=0.15
MMNnor1 inor A2_N VGND VNB nfet_01v8 m=2 w=0.65 l=0.15
MMNaoi10 VGND B1 sndNB1 VNB nfet_01v8 m=2 w=0.65 l=0.15
MMNaoi11 sndNB1 B2 Y VNB nfet_01v8 m=2 w=0.65 l=0.15
MMNaoi20 Y inor VGND VNB nfet_01v8 m=2 w=0.65 l=0.15
MMPnor0 VPWR A1_N sndPA1N VPB pfet_01v8_hvt m=2 w=1.0 l=0.15
MMPnor1 sndPA1N A2_N inor VPB pfet_01v8_hvt m=2 w=1.0 l=0.15
MMPaoi10 pmid B1 VPWR VPB pfet_01v8_hvt m=2 w=1.0 l=0.15
MMPaoi11 pmid B2 VPWR VPB pfet_01v8_hvt m=2 w=1.0 l=0.15
MMPaoi20 Y inor pmid VPB pfet_01v8_hvt m=2 w=1.0 l=0.15
.ENDS sky130_fd_sc_hd__a2bb2oi_2


.SUBCKT sky130_fd_sc_hd__a2bb2oi_4 A1_N A2_N B1 B2 VGND VNB VPB VPWR Y
*.PININFO A1_N:I A2_N:I B1:I B2:I VGND:I VNB:I VPB:I VPWR:I Y:O
MMNnor0 inor A1_N VGND VNB nfet_01v8 m=4 w=0.65 l=0.15
MMNnor1 inor A2_N VGND VNB nfet_01v8 m=4 w=0.65 l=0.15
MMNaoi10 VGND B1 sndNB1 VNB nfet_01v8 m=4 w=0.65 l=0.15
MMNaoi11 sndNB1 B2 Y VNB nfet_01v8 m=4 w=0.65 l=0.15
MMNaoi20 Y inor VGND VNB nfet_01v8 m=4 w=0.65 l=0.15
MMPnor0 VPWR A1_N sndPA1N VPB pfet_01v8_hvt m=4 w=1.0 l=0.15
MMPnor1 sndPA1N A2_N inor VPB pfet_01v8_hvt m=4 w=1.0 l=0.15
MMPaoi10 pmid B1 VPWR VPB pfet_01v8_hvt m=4 w=1.0 l=0.15
MMPaoi11 pmid B2 VPWR VPB pfet_01v8_hvt m=4 w=1.0 l=0.15
MMPaoi20 Y inor pmid VPB pfet_01v8_hvt m=4 w=1.0 l=0.15
.ENDS sky130_fd_sc_hd__a2bb2oi_4


.SUBCKT sky130_fd_sc_hd__a311o_1 A1 A2 A3 B1 C1 VGND VNB VPB VPWR X
*.PININFO A1:I A2:I A3:I B1:I C1:I VGND:I VNB:I VPB:I VPWR:I X:O
MMPA0 pndA A1 VPWR VPB pfet_01v8_hvt w=1.0 l=0.15
MMPA1 pndA A2 VPWR VPB pfet_01v8_hvt w=1.0 l=0.15
MMPA2 pndA A3 VPWR VPB pfet_01v8_hvt w=1.0 l=0.15
MMPB0 pndB B1 pndA VPB pfet_01v8_hvt w=1.0 l=0.15
MMPC0 y C1 pndB VPB pfet_01v8_hvt w=1.0 l=0.15
MMIPX X y VPWR VPB pfet_01v8_hvt w=1.0 l=0.15
MMNA0 y A1 sndA1 VNB nfet_01v8 w=0.65 l=0.15